data_main-geometry                                                                   

_audit_creation_method             'generated by GULP'

_symmetry_space_group_name_H-M     'P 1'
_symmetry_Int_Tables_number        1
_symmetry_cell_setting             triclinic

_cell_length_a                        5.7072
_cell_length_b                        5.7072
_cell_length_c                        5.7072
_cell_angle_alpha                   90.0000
_cell_angle_beta                    90.0000
_cell_angle_gamma                   90.0000

loop_
_atom_site_label
_atom_site_fract_x
_atom_site_fract_y
_atom_site_fract_z
_atom_site_occupancy
  Fe          0.00000      0.00000      0.00000  1.0000
  Fe          0.50000      1.00000      0.50000  1.0000
  Fe          1.00000      0.50000      0.50000  1.0000
  Fe          0.50000      0.50000      1.00000  1.0000
  S           0.32196      0.32196      0.32196  1.0000
  S           0.67804      0.67804      0.67804  1.0000
  S           0.17804      0.67804      0.82196  1.0000
  S           0.82196      0.32196      0.17804  1.0000
  S           0.67804      0.82196      0.17804  1.0000
  S           0.32196      0.17804      0.82196  1.0000
  S           0.82196      0.17804      0.67804  1.0000
  S           0.17804      0.82196      0.32196  1.0000
